LTspice 26.0.1 for Windows
Circuit: C:\Users\User\OneDrive\Documents\LTspice\Clipper circuit.net
Start Time: Fri May 29 17:16:29 2026
solver = Normal
Maximum thread count: 8
tnom = 27
temp = 27
method = trap
Direct Newton iteration succeeded in finding operating point.
Total elapsed time: 0.228 seconds.

Files loaded:
C:\Users\User\OneDrive\Documents\LTspice\Clipper circuit.net
C:\Users\User\AppData\Local\LTspice\lib\cmp\standard.dio

